Version 4
SHEET 1 880 680
WIRE 144 144 -48 144
WIRE 272 144 208 144
WIRE -48 176 -48 144
WIRE 144 176 80 176
WIRE 272 176 272 144
WIRE 272 176 208 176
WIRE 80 240 80 176
WIRE 272 240 272 176
FLAG -48 336 0
FLAG 80 320 0
FLAG 272 240 0
SYMBOL BFP640 176 160 R0
SYMATTR InstName U1
SYMBOL res -64 160 R0
SYMATTR InstName R1
SYMATTR Value 1k
SYMBOL voltage -48 240 R0
WINDOW 123 0 0 Left 0
WINDOW 39 0 0 Left 0
SYMATTR InstName V1
SYMATTR Value {Vce}
SYMBOL current 80 320 R180
WINDOW 0 24 80 Left 2
WINDOW 3 24 0 Left 2
SYMATTR InstName I1
SYMATTR Value {Ib}
TEXT -80 456 Left 2 !.lib "C:\\Program Files\\LTC\\LTspiceXVII\\lib\\sub\\Infineon-RFTransistor-SPICE.lib"
TEXT 8 376 Left 2 !.step param Vce 0 30 1
TEXT -82 476 Left 2 !.op
TEXT 8 416 Left 2 !.step param Ib 9u 10u 0.1u
